
OS:Version,
  {cf0f8ecc-55c7-4cda-a9c2-f80da746f52e}, !- Handle
  1.10.6;                                 !- Version Identifier

OS:Site,
  {82f3e444-997b-4174-809b-79c69a201c51}, !- Handle
  Portland International Ap,              !- Name
  45.6,                                   !- Latitude {deg}
  -122.62,                                !- Longitude {deg}
  -8,                                     !- Time Zone {hr}
  6,                                      !- Elevation {m}
  ;                                       !- Terrain

OS:YearDescription,
  {58045034-4b8a-437b-afbf-4401a5133e5e}, !- Handle
  ,                                       !- Calendar Year
  Sunday;                                 !- Day of Week for Start Day

OS:ClimateZones,
  {e6302e30-5302-42d0-92e4-f65c9baccf04}, !- Handle
  ,                                       !- Active Institution
  ,                                       !- Active Year
  ASHRAE,                                 !- Climate Zone Institution Name 1
  ANSI/ASHRAE Standard 169,               !- Climate Zone Document Name 1
  2006,                                   !- Climate Zone Document Year 1
  4C,                                     !- Climate Zone Value 1
  CEC,                                    !- Climate Zone Institution Name 2
  California Climate Zone Descriptions,   !- Climate Zone Document Name 2
  1995,                                   !- Climate Zone Document Year 2
  ;                                       !- Climate Zone Value 2

OS:Building,
  {1e40aa63-8999-41d5-a2b4-67df9987fd14}, !- Handle
  Building 1,                             !- Name
  ,                                       !- Building Sector Type
  ,                                       !- North Axis {deg}
  ,                                       !- Nominal Floor to Floor Height {m}
  {ed2f4f28-9a49-4e94-9003-bca95abe78e0}, !- Space Type Name
  {44c66311-c1e8-4bc2-af0c-eccf05858478}, !- Default Construction Set Name
  ,                                       !- Default Schedule Set Name
  ,                                       !- Standards Number of Stories
  ,                                       !- Standards Number of Above Ground Stories
  PrimarySchool;                          !- Standards Building Type

OS:Facility,
  {23f75642-33f0-4188-843b-299cdc2dec30}; !- Handle

OS:LifeCycleCost:Parameters,
  {ba30d0f0-4520-4b5e-ae25-aeb35cb6778c}, !- Handle
  ,                                       !- Analysis Type
  ,                                       !- Discounting Convention
  ,                                       !- Inflation Approach
  ,                                       !- Real Discount Rate
  ,                                       !- Nominal Discount Rate
  ,                                       !- Inflation
  ,                                       !- Base Date Month
  ,                                       !- Base Date Year
  ,                                       !- Service Date Month
  ,                                       !- Service Date Year
  ;                                       !- Length of Study Period in Years

OS:WeatherFile,
  {1651c21b-b603-4548-aab3-b22bf53ff74b}, !- Handle
  Portland International Ap,              !- City
  OR,                                     !- State Province Region
  USA,                                    !- Country
  TMY3,                                   !- Data Source
  726980,                                 !- WMO Number
  45.6,                                   !- Latitude {deg}
  -122.62,                                !- Longitude {deg}
  -8,                                     !- Time Zone {hr}
  6,                                      !- Elevation {m}
  file:files/USA_OR_Portland.Intl.AP.726980_TMY3.epw, !- Url
  76446B24;                               !- Checksum

OS:RunPeriod,
  {cf6223a9-d647-44b3-9c7e-5616cbb2adcf}, !- Handle
  Run Period 1,                           !- Name
  1,                                      !- Begin Month
  1,                                      !- Begin Day of Month
  12,                                     !- End Month
  31,                                     !- End Day of Month
  ,                                       !- Use Weather File Holidays and Special Days
  ,                                       !- Use Weather File Daylight Saving Period
  ,                                       !- Apply Weekend Holiday Rule
  ,                                       !- Use Weather File Rain Indicators
  ,                                       !- Use Weather File Snow Indicators
  ;                                       !- Number of Times Runperiod to be Repeated

OS:SizingPeriod:DesignDay,
  {d35731df-7c9f-4b6f-a6e0-45a064339931}, !- Handle
  Portland International Ap Ann Clg .4% Condns DP=>MDB, !- Name
  24,                                     !- Maximum Dry-Bulb Temperature {C}
  12.2,                                   !- Daily Dry-Bulb Temperature Range {deltaC}
  17.1,                                   !- Humidity Indicating Conditions at Maximum Dry-Bulb
  101253,                                 !- Barometric Pressure {Pa}
  4.7,                                    !- Wind Speed {m/s}
  310,                                    !- Wind Direction {deg}
  0,                                      !- Sky Clearness
  0,                                      !- Rain Indicator
  0,                                      !- Snow Indicator
  21,                                     !- Day of Month
  8,                                      !- Month
  SummerDesignDay,                        !- Day Type
  0,                                      !- Daylight Saving Time Indicator
  Dewpoint,                               !- Humidity Indicating Type
  ,                                       !- Humidity Indicating Day Schedule Name
  DefaultMultipliers,                     !- Dry-Bulb Temperature Range Modifier Type
  ,                                       !- Dry-Bulb Temperature Range Modifier Schedule Name
  ASHRAETau,                              !- Solar Model Indicator
  ,                                       !- Beam Solar Day Schedule Name
  ,                                       !- Diffuse Solar Day Schedule Name
  0.358,                                  !- ASHRAE Taub {dimensionless}
  2.549;                                  !- ASHRAE Taud {dimensionless}

OS:SizingPeriod:DesignDay,
  {ecd16174-7873-4eb4-970b-bd2ee49c9bdd}, !- Handle
  Portland International Ap Ann Clg .4% Condns Enth=>MDB, !- Name
  30.8,                                   !- Maximum Dry-Bulb Temperature {C}
  12.2,                                   !- Daily Dry-Bulb Temperature Range {deltaC}
  59900,                                  !- Humidity Indicating Conditions at Maximum Dry-Bulb
  101253,                                 !- Barometric Pressure {Pa}
  4.7,                                    !- Wind Speed {m/s}
  310,                                    !- Wind Direction {deg}
  0,                                      !- Sky Clearness
  0,                                      !- Rain Indicator
  0,                                      !- Snow Indicator
  21,                                     !- Day of Month
  8,                                      !- Month
  SummerDesignDay,                        !- Day Type
  0,                                      !- Daylight Saving Time Indicator
  Enthalpy,                               !- Humidity Indicating Type
  ,                                       !- Humidity Indicating Day Schedule Name
  DefaultMultipliers,                     !- Dry-Bulb Temperature Range Modifier Type
  ,                                       !- Dry-Bulb Temperature Range Modifier Schedule Name
  ASHRAETau,                              !- Solar Model Indicator
  ,                                       !- Beam Solar Day Schedule Name
  ,                                       !- Diffuse Solar Day Schedule Name
  0.358,                                  !- ASHRAE Taub {dimensionless}
  2.549;                                  !- ASHRAE Taud {dimensionless}

OS:SizingPeriod:DesignDay,
  {494bd31a-97b5-456b-968a-c94f693e04dd}, !- Handle
  Portland International Ap Ann Clg .4% Condns WB=>MDB, !- Name
  30.6,                                   !- Maximum Dry-Bulb Temperature {C}
  12.2,                                   !- Daily Dry-Bulb Temperature Range {deltaC}
  20.8,                                   !- Humidity Indicating Conditions at Maximum Dry-Bulb
  101253,                                 !- Barometric Pressure {Pa}
  4.7,                                    !- Wind Speed {m/s}
  310,                                    !- Wind Direction {deg}
  0,                                      !- Sky Clearness
  0,                                      !- Rain Indicator
  0,                                      !- Snow Indicator
  21,                                     !- Day of Month
  8,                                      !- Month
  SummerDesignDay,                        !- Day Type
  0,                                      !- Daylight Saving Time Indicator
  Wetbulb,                                !- Humidity Indicating Type
  ,                                       !- Humidity Indicating Day Schedule Name
  DefaultMultipliers,                     !- Dry-Bulb Temperature Range Modifier Type
  ,                                       !- Dry-Bulb Temperature Range Modifier Schedule Name
  ASHRAETau,                              !- Solar Model Indicator
  ,                                       !- Beam Solar Day Schedule Name
  ,                                       !- Diffuse Solar Day Schedule Name
  0.358,                                  !- ASHRAE Taub {dimensionless}
  2.549;                                  !- ASHRAE Taud {dimensionless}

OS:SizingPeriod:DesignDay,
  {0479a1e2-a0c8-4797-9436-60de741410cd}, !- Handle
  Portland International Ap Ann Clg .4% Condns DB=>MWB, !- Name
  32.9,                                   !- Maximum Dry-Bulb Temperature {C}
  12.2,                                   !- Daily Dry-Bulb Temperature Range {deltaC}
  19.7,                                   !- Humidity Indicating Conditions at Maximum Dry-Bulb
  101253,                                 !- Barometric Pressure {Pa}
  4.7,                                    !- Wind Speed {m/s}
  310,                                    !- Wind Direction {deg}
  0,                                      !- Sky Clearness
  0,                                      !- Rain Indicator
  0,                                      !- Snow Indicator
  21,                                     !- Day of Month
  8,                                      !- Month
  SummerDesignDay,                        !- Day Type
  0,                                      !- Daylight Saving Time Indicator
  Wetbulb,                                !- Humidity Indicating Type
  ,                                       !- Humidity Indicating Day Schedule Name
  DefaultMultipliers,                     !- Dry-Bulb Temperature Range Modifier Type
  ,                                       !- Dry-Bulb Temperature Range Modifier Schedule Name
  ASHRAETau,                              !- Solar Model Indicator
  ,                                       !- Beam Solar Day Schedule Name
  ,                                       !- Diffuse Solar Day Schedule Name
  0.358,                                  !- ASHRAE Taub {dimensionless}
  2.549;                                  !- ASHRAE Taud {dimensionless}

OS:SizingPeriod:DesignDay,
  {c603ec68-f764-4213-8ae8-d4fa46e143af}, !- Handle
  Portland International Ap Ann Htg Wind 99.6% Condns WS=>MCDB, !- Name
  1.9,                                    !- Maximum Dry-Bulb Temperature {C}
  0,                                      !- Daily Dry-Bulb Temperature Range {deltaC}
  1.9,                                    !- Humidity Indicating Conditions at Maximum Dry-Bulb
  101253,                                 !- Barometric Pressure {Pa}
  14.3,                                   !- Wind Speed {m/s}
  120,                                    !- Wind Direction {deg}
  0,                                      !- Sky Clearness
  0,                                      !- Rain Indicator
  0,                                      !- Snow Indicator
  21,                                     !- Day of Month
  12,                                     !- Month
  WinterDesignDay,                        !- Day Type
  0,                                      !- Daylight Saving Time Indicator
  Wetbulb,                                !- Humidity Indicating Type
  ,                                       !- Humidity Indicating Day Schedule Name
  DefaultMultipliers,                     !- Dry-Bulb Temperature Range Modifier Type
  ,                                       !- Dry-Bulb Temperature Range Modifier Schedule Name
  ASHRAEClearSky;                         !- Solar Model Indicator

OS:SizingPeriod:DesignDay,
  {7103c158-4c03-418d-b061-fe5c54c9eadb}, !- Handle
  Portland International Ap Ann Htg 99.6% Condns DB, !- Name
  -4.5,                                   !- Maximum Dry-Bulb Temperature {C}
  0,                                      !- Daily Dry-Bulb Temperature Range {deltaC}
  -4.5,                                   !- Humidity Indicating Conditions at Maximum Dry-Bulb
  101253,                                 !- Barometric Pressure {Pa}
  5.1,                                    !- Wind Speed {m/s}
  120,                                    !- Wind Direction {deg}
  0,                                      !- Sky Clearness
  0,                                      !- Rain Indicator
  0,                                      !- Snow Indicator
  21,                                     !- Day of Month
  12,                                     !- Month
  WinterDesignDay,                        !- Day Type
  0,                                      !- Daylight Saving Time Indicator
  Wetbulb,                                !- Humidity Indicating Type
  ,                                       !- Humidity Indicating Day Schedule Name
  DefaultMultipliers,                     !- Dry-Bulb Temperature Range Modifier Type
  ,                                       !- Dry-Bulb Temperature Range Modifier Schedule Name
  ASHRAEClearSky;                         !- Solar Model Indicator

OS:SizingPeriod:DesignDay,
  {09201569-d40f-4b32-95a8-90ded637b4f4}, !- Handle
  Portland International Ap Ann Hum_n 99.6% Condns DP=>MCDB, !- Name
  -1.5,                                   !- Maximum Dry-Bulb Temperature {C}
  0,                                      !- Daily Dry-Bulb Temperature Range {deltaC}
  -12.7,                                  !- Humidity Indicating Conditions at Maximum Dry-Bulb
  101253,                                 !- Barometric Pressure {Pa}
  5.1,                                    !- Wind Speed {m/s}
  120,                                    !- Wind Direction {deg}
  0,                                      !- Sky Clearness
  0,                                      !- Rain Indicator
  0,                                      !- Snow Indicator
  21,                                     !- Day of Month
  12,                                     !- Month
  WinterDesignDay,                        !- Day Type
  0,                                      !- Daylight Saving Time Indicator
  Dewpoint,                               !- Humidity Indicating Type
  ,                                       !- Humidity Indicating Day Schedule Name
  DefaultMultipliers,                     !- Dry-Bulb Temperature Range Modifier Type
  ,                                       !- Dry-Bulb Temperature Range Modifier Schedule Name
  ASHRAEClearSky;                         !- Solar Model Indicator

OS:BuildingStory,
  {8e567e15-15b4-49ba-b588-cf930b4c4192}, !- Handle
  Story 1,                                !- Name
  0,                                      !- Nominal Z Coordinate {m}
  3.048,                                  !- Nominal Floor to Floor Height {m}
  ,                                       !- Default Construction Set Name
  ,                                       !- Default Schedule Set Name
  ;                                       !- Group Rendering Name

OS:Space,
  {392aa6ed-cc5b-46cc-b631-84444edc3a21}, !- Handle
  Story 1 West Perimeter Space,           !- Name
  ,                                       !- Space Type Name
  ,                                       !- Default Construction Set Name
  ,                                       !- Default Schedule Set Name
  -0,                                     !- Direction of Relative North {deg}
  0,                                      !- X Origin {m}
  0,                                      !- Y Origin {m}
  0,                                      !- Z Origin {m}
  {8e567e15-15b4-49ba-b588-cf930b4c4192}, !- Building Story Name
  {a8df55f2-5a3d-4b98-bb63-388c2e2d637a}; !- Thermal Zone Name

OS:Surface,
  {5cfd583f-5b51-47e8-af81-8d4d39ebf994}, !- Handle
  Surface 1,                              !- Name
  Floor,                                  !- Surface Type
  ,                                       !- Construction Name
  {392aa6ed-cc5b-46cc-b631-84444edc3a21}, !- Space Name
  Ground,                                 !- Outside Boundary Condition
  ,                                       !- Outside Boundary Condition Object
  NoSun,                                  !- Sun Exposure
  NoWind,                                 !- Wind Exposure
  ,                                       !- View Factor to Ground
  ,                                       !- Number of Vertices
  0, 0, 0,                                !- X,Y,Z Vertex 1 {m}
  0, 15.24, 0,                            !- X,Y,Z Vertex 2 {m}
  4.57, 10.67, 0,                         !- X,Y,Z Vertex 3 {m}
  4.57, 4.57, 0;                          !- X,Y,Z Vertex 4 {m}

OS:Surface,
  {3303977b-07f5-4021-8d93-024003175433}, !- Handle
  Surface 2,                              !- Name
  Wall,                                   !- Surface Type
  ,                                       !- Construction Name
  {392aa6ed-cc5b-46cc-b631-84444edc3a21}, !- Space Name
  Outdoors,                               !- Outside Boundary Condition
  ,                                       !- Outside Boundary Condition Object
  SunExposed,                             !- Sun Exposure
  WindExposed,                            !- Wind Exposure
  ,                                       !- View Factor to Ground
  ,                                       !- Number of Vertices
  0, 15.24, 3.048,                        !- X,Y,Z Vertex 1 {m}
  0, 15.24, 0,                            !- X,Y,Z Vertex 2 {m}
  0, 0, 0,                                !- X,Y,Z Vertex 3 {m}
  0, 0, 3.048;                            !- X,Y,Z Vertex 4 {m}

OS:Surface,
  {ea710a6f-6864-4065-8018-12c5c3629eec}, !- Handle
  Surface 3,                              !- Name
  Wall,                                   !- Surface Type
  ,                                       !- Construction Name
  {392aa6ed-cc5b-46cc-b631-84444edc3a21}, !- Space Name
  Surface,                                !- Outside Boundary Condition
  {599bb459-50d8-44ed-82b8-113bffa087de}, !- Outside Boundary Condition Object
  NoSun,                                  !- Sun Exposure
  NoWind,                                 !- Wind Exposure
  ,                                       !- View Factor to Ground
  ,                                       !- Number of Vertices
  4.57, 10.67, 3.048,                     !- X,Y,Z Vertex 1 {m}
  4.57, 10.67, 0,                         !- X,Y,Z Vertex 2 {m}
  0, 15.24, 0,                            !- X,Y,Z Vertex 3 {m}
  0, 15.24, 3.048;                        !- X,Y,Z Vertex 4 {m}

OS:Surface,
  {f84f6ad4-61a7-4a0e-be17-d91ee46a747c}, !- Handle
  Surface 4,                              !- Name
  Wall,                                   !- Surface Type
  ,                                       !- Construction Name
  {392aa6ed-cc5b-46cc-b631-84444edc3a21}, !- Space Name
  Surface,                                !- Outside Boundary Condition
  {bc2d8b95-9e1c-4b22-a44f-8c6c97b24077}, !- Outside Boundary Condition Object
  NoSun,                                  !- Sun Exposure
  NoWind,                                 !- Wind Exposure
  ,                                       !- View Factor to Ground
  ,                                       !- Number of Vertices
  4.57, 4.57, 3.048,                      !- X,Y,Z Vertex 1 {m}
  4.57, 4.57, 0,                          !- X,Y,Z Vertex 2 {m}
  4.57, 10.67, 0,                         !- X,Y,Z Vertex 3 {m}
  4.57, 10.67, 3.048;                     !- X,Y,Z Vertex 4 {m}

OS:Surface,
  {991039af-0ea7-4f12-a2b8-22b45c875e99}, !- Handle
  Surface 5,                              !- Name
  Wall,                                   !- Surface Type
  ,                                       !- Construction Name
  {392aa6ed-cc5b-46cc-b631-84444edc3a21}, !- Space Name
  Surface,                                !- Outside Boundary Condition
  {0130e444-0435-4df8-87a8-7b499992c30a}, !- Outside Boundary Condition Object
  NoSun,                                  !- Sun Exposure
  NoWind,                                 !- Wind Exposure
  ,                                       !- View Factor to Ground
  ,                                       !- Number of Vertices
  0, 0, 3.048,                            !- X,Y,Z Vertex 1 {m}
  0, 0, 0,                                !- X,Y,Z Vertex 2 {m}
  4.57, 4.57, 0,                          !- X,Y,Z Vertex 3 {m}
  4.57, 4.57, 3.048;                      !- X,Y,Z Vertex 4 {m}

OS:Surface,
  {bc949159-71ac-4d0e-96e7-d42150d7caa2}, !- Handle
  Surface 6,                              !- Name
  RoofCeiling,                            !- Surface Type
  ,                                       !- Construction Name
  {392aa6ed-cc5b-46cc-b631-84444edc3a21}, !- Space Name
  Surface,                                !- Outside Boundary Condition
  {0ddd1518-18dd-4668-b14e-fb89bc04e844}, !- Outside Boundary Condition Object
  NoSun,                                  !- Sun Exposure
  NoWind,                                 !- Wind Exposure
  ,                                       !- View Factor to Ground
  ,                                       !- Number of Vertices
  4.57, 4.57, 3.048,                      !- X,Y,Z Vertex 1 {m}
  4.57, 10.67, 3.048,                     !- X,Y,Z Vertex 2 {m}
  0, 15.24, 3.048,                        !- X,Y,Z Vertex 3 {m}
  0, 0, 3.048;                            !- X,Y,Z Vertex 4 {m}

OS:Space,
  {b467b455-f1c2-44f8-b9e0-8fc9679d1c09}, !- Handle
  Story 1 North Perimeter Space,          !- Name
  ,                                       !- Space Type Name
  ,                                       !- Default Construction Set Name
  ,                                       !- Default Schedule Set Name
  -0,                                     !- Direction of Relative North {deg}
  4.57,                                   !- X Origin {m}
  10.67,                                  !- Y Origin {m}
  0,                                      !- Z Origin {m}
  {8e567e15-15b4-49ba-b588-cf930b4c4192}, !- Building Story Name
  {b0cb09b1-3f5a-4da8-a5f6-5ab06705287f}; !- Thermal Zone Name

OS:Surface,
  {dc4f14fe-31e5-41ea-a8a3-186a2b181c83}, !- Handle
  Surface 7,                              !- Name
  Floor,                                  !- Surface Type
  ,                                       !- Construction Name
  {b467b455-f1c2-44f8-b9e0-8fc9679d1c09}, !- Space Name
  Ground,                                 !- Outside Boundary Condition
  ,                                       !- Outside Boundary Condition Object
  NoSun,                                  !- Sun Exposure
  NoWind,                                 !- Wind Exposure
  ,                                       !- View Factor to Ground
  ,                                       !- Number of Vertices
  -4.57, 4.57, 0,                         !- X,Y,Z Vertex 1 {m}
  25.91, 4.57, 0,                         !- X,Y,Z Vertex 2 {m}
  21.34, 0, 0,                            !- X,Y,Z Vertex 3 {m}
  0, 0, 0;                                !- X,Y,Z Vertex 4 {m}

OS:Surface,
  {e17c2de4-b350-4727-bcd9-4bf0801a8883}, !- Handle
  Surface 8,                              !- Name
  Wall,                                   !- Surface Type
  ,                                       !- Construction Name
  {b467b455-f1c2-44f8-b9e0-8fc9679d1c09}, !- Space Name
  Outdoors,                               !- Outside Boundary Condition
  ,                                       !- Outside Boundary Condition Object
  SunExposed,                             !- Sun Exposure
  WindExposed,                            !- Wind Exposure
  ,                                       !- View Factor to Ground
  ,                                       !- Number of Vertices
  25.91, 4.57, 3.048,                     !- X,Y,Z Vertex 1 {m}
  25.91, 4.57, 0,                         !- X,Y,Z Vertex 2 {m}
  -4.57, 4.57, 0,                         !- X,Y,Z Vertex 3 {m}
  -4.57, 4.57, 3.048;                     !- X,Y,Z Vertex 4 {m}

OS:Surface,
  {1054b691-7185-41a3-a03c-ea32a0995133}, !- Handle
  Surface 9,                              !- Name
  Wall,                                   !- Surface Type
  ,                                       !- Construction Name
  {b467b455-f1c2-44f8-b9e0-8fc9679d1c09}, !- Space Name
  Surface,                                !- Outside Boundary Condition
  {58659220-5623-4a1f-8012-ef70390a4a9e}, !- Outside Boundary Condition Object
  NoSun,                                  !- Sun Exposure
  NoWind,                                 !- Wind Exposure
  ,                                       !- View Factor to Ground
  ,                                       !- Number of Vertices
  21.34, 0, 3.048,                        !- X,Y,Z Vertex 1 {m}
  21.34, 0, 0,                            !- X,Y,Z Vertex 2 {m}
  25.91, 4.57, 0,                         !- X,Y,Z Vertex 3 {m}
  25.91, 4.57, 3.048;                     !- X,Y,Z Vertex 4 {m}

OS:Surface,
  {f57db93f-cb30-4627-9296-51d0c996cffc}, !- Handle
  Surface 10,                             !- Name
  Wall,                                   !- Surface Type
  ,                                       !- Construction Name
  {b467b455-f1c2-44f8-b9e0-8fc9679d1c09}, !- Space Name
  Surface,                                !- Outside Boundary Condition
  {763ca372-84fa-4a12-87df-11db7555e09b}, !- Outside Boundary Condition Object
  NoSun,                                  !- Sun Exposure
  NoWind,                                 !- Wind Exposure
  ,                                       !- View Factor to Ground
  ,                                       !- Number of Vertices
  0, 0, 3.048,                            !- X,Y,Z Vertex 1 {m}
  0, 0, 0,                                !- X,Y,Z Vertex 2 {m}
  21.34, 0, 0,                            !- X,Y,Z Vertex 3 {m}
  21.34, 0, 3.048;                        !- X,Y,Z Vertex 4 {m}

OS:Surface,
  {599bb459-50d8-44ed-82b8-113bffa087de}, !- Handle
  Surface 11,                             !- Name
  Wall,                                   !- Surface Type
  ,                                       !- Construction Name
  {b467b455-f1c2-44f8-b9e0-8fc9679d1c09}, !- Space Name
  Surface,                                !- Outside Boundary Condition
  {ea710a6f-6864-4065-8018-12c5c3629eec}, !- Outside Boundary Condition Object
  NoSun,                                  !- Sun Exposure
  NoWind,                                 !- Wind Exposure
  ,                                       !- View Factor to Ground
  ,                                       !- Number of Vertices
  -4.57, 4.57, 3.048,                     !- X,Y,Z Vertex 1 {m}
  -4.57, 4.57, 0,                         !- X,Y,Z Vertex 2 {m}
  0, 0, 0,                                !- X,Y,Z Vertex 3 {m}
  0, 0, 3.048;                            !- X,Y,Z Vertex 4 {m}

OS:Surface,
  {81e2bf75-0fb0-4481-bcc8-bb24cc74f12a}, !- Handle
  Surface 12,                             !- Name
  RoofCeiling,                            !- Surface Type
  ,                                       !- Construction Name
  {b467b455-f1c2-44f8-b9e0-8fc9679d1c09}, !- Space Name
  Surface,                                !- Outside Boundary Condition
  {80f913d2-cd94-4d76-9456-4e61a3f0e2fe}, !- Outside Boundary Condition Object
  NoSun,                                  !- Sun Exposure
  NoWind,                                 !- Wind Exposure
  ,                                       !- View Factor to Ground
  ,                                       !- Number of Vertices
  0, 0, 3.048,                            !- X,Y,Z Vertex 1 {m}
  21.34, 0, 3.048,                        !- X,Y,Z Vertex 2 {m}
  25.91, 4.57, 3.048,                     !- X,Y,Z Vertex 3 {m}
  -4.57, 4.57, 3.048;                     !- X,Y,Z Vertex 4 {m}

OS:Space,
  {f14ed06f-ffd0-4ff2-90ad-2a902c2c7e27}, !- Handle
  Story 1 East Perimeter Space,           !- Name
  ,                                       !- Space Type Name
  ,                                       !- Default Construction Set Name
  ,                                       !- Default Schedule Set Name
  -0,                                     !- Direction of Relative North {deg}
  25.91,                                  !- X Origin {m}
  4.57,                                   !- Y Origin {m}
  0,                                      !- Z Origin {m}
  {8e567e15-15b4-49ba-b588-cf930b4c4192}, !- Building Story Name
  {43065272-2d4e-44e8-ab10-9d23e9860b04}; !- Thermal Zone Name

OS:Surface,
  {1a2c6707-0821-434e-84c2-be51bd02fffe}, !- Handle
  Surface 13,                             !- Name
  Floor,                                  !- Surface Type