
Version,
  8.0;                                    !- Version Identifier

LifeCycleCost:Parameters,
  {0bc18d83-fe1e-4d86-8e2f-2817636ea439}, !- Name
  EndOfYear,                              !- Discounting Convention
  ConstantDollar,                         !- Inflation Approach
  0.03,                                   !- Real Discount Rate
  ,                                       !- Nominal Discount Rate
  ,                                       !- Inflation
  ,                                       !- Base Date Month
  2011,                                   !- Base Date Year
  ,                                       !- Service Date Month
  2011,                                   !- Service Date Year
  25,                                     !- Length of Study Period in Years
  ,                                       !- Tax rate
  None;                                   !- Depreciation Method

LifeCycleCost:UsePriceEscalation,
  U.S. Avg  Commercial-Electricity,       !- Name
  Electricity,                            !- Resource
  2011,                                   !- Escalation Start Year
  January,                                !- Escalation Start Month
  0.9838,                                 !- Year Escalation 1
  0.9730,                                 !- Year Escalation 2
  0.9632,                                 !- Year Escalation 3
  0.9611,                                 !- Year Escalation 4
  0.9571,                                 !- Year Escalation 5
  0.9553,                                 !- Year Escalation 6
  0.9539,                                 !- Year Escalation 7
  0.9521,                                 !- Year Escalation 8
  0.9546,                                 !- Year Escalation 9
  0.9550,                                 !- Year Escalation 10
  0.9553,                                 !- Year Escalation 11
  0.9564,                                 !- Year Escalation 12
  0.9575,                                 !- Year Escalation 13
  0.9596,                                 !- Year Escalation 14
  0.9618,                                 !- Year Escalation 15
  0.9614,                                 !- Year Escalation 16
  0.9618,                                 !- Year Escalation 17
  0.9618,                                 !- Year Escalation 18
  0.9593,                                 !- Year Escalation 19
  0.9589,                                 !- Year Escalation 20
  0.9607,                                 !- Year Escalation 21
  0.9625,                                 !- Year Escalation 22
  0.9650,                                 !- Year Escalation 23
  0.9708,                                 !- Year Escalation 24
  0.9751,                                 !- Year Escalation 25
  0.9762,                                 !- Year Escalation 26
  0.9766,                                 !- Year Escalation 27
  0.9766,                                 !- Year Escalation 28
  0.9769,                                 !- Year Escalation 29
  0.9773;                                 !- Year Escalation 30

LifeCycleCost:UsePriceEscalation,
  U.S. Avg  Commercial-Distillate Oil,    !- Name
  FuelOil#1,                              !- Resource
  2011,                                   !- Escalation Start Year
  January,                                !- Escalation Start Month
  0.9714,                                 !- Year Escalation 1
  0.9730,                                 !- Year Escalation 2
  0.9942,                                 !- Year Escalation 3
  1.0164,                                 !- Year Escalation 4
  1.0541,                                 !- Year Escalation 5
  1.0928,                                 !- Year Escalation 6
  1.1267,                                 !- Year Escalation 7
  1.1580,                                 !- Year Escalation 8
  1.1792,                                 !- Year Escalation 9
  1.1967,                                 !- Year Escalation 10
  1.2200,                                 !- Year Escalation 11
  1.2333,                                 !- Year Escalation 12
  1.2566,                                 !- Year Escalation 13
  1.2709,                                 !- Year Escalation 14
  1.2826,                                 !- Year Escalation 15
  1.2985,                                 !- Year Escalation 16
  1.3102,                                 !- Year Escalation 17
  1.3250,                                 !- Year Escalation 18
  1.3261,                                 !- Year Escalation 19
  1.3282,                                 !- Year Escalation 20
  1.3324,                                 !- Year Escalation 21
  1.3356,                                 !- Year Escalation 22
  1.3431,                                 !- Year Escalation 23
  1.3510,                                 !- Year Escalation 24
  1.3568,                                 !- Year Escalation 25
  1.3606,                                 !- Year Escalation 26
  1.3637,                                 !- Year Escalation 27
  1.3674,                                 !- Year Escalation 28
  1.3706,                                 !- Year Escalation 29
  1.3743;                                 !- Year Escalation 30

LifeCycleCost:UsePriceEscalation,
  U.S. Avg  Commercial-Residual Oil,      !- Name
  FuelOil#2,                              !- Resource
  2011,                                   !- Escalation Start Year
  January,                                !- Escalation Start Month
  0.8469,                                 !- Year Escalation 1
  0.8257,                                 !- Year Escalation 2
  0.8681,                                 !- Year Escalation 3
  0.8988,                                 !- Year Escalation 4
  0.9289,                                 !- Year Escalation 5
  0.9604,                                 !- Year Escalation 6
  0.9897,                                 !- Year Escalation 7
  1.0075,                                 !- Year Escalation 8
  1.0314,                                 !- Year Escalation 9
  1.0554,                                 !- Year Escalation 10
  1.0861,                                 !- Year Escalation 11
  1.1278,                                 !- Year Escalation 12
  1.1497,                                 !- Year Escalation 13
  1.1620,                                 !- Year Escalation 14
  1.1743,                                 !- Year Escalation 15
  1.1852,                                 !- Year Escalation 16
  1.1948,                                 !- Year Escalation 17
  1.2037,                                 !- Year Escalation 18
  1.2071,                                 !- Year Escalation 19
  1.2119,                                 !- Year Escalation 20
  1.2139,                                 !- Year Escalation 21
  1.2194,                                 !- Year Escalation 22
  1.2276,                                 !- Year Escalation 23
  1.2365,                                 !- Year Escalation 24
  1.2420,                                 !- Year Escalation 25
  1.2461,                                 !- Year Escalation 26
  1.2509,                                 !- Year Escalation 27
  1.2550,                                 !- Year Escalation 28
  1.2591,                                 !- Year Escalation 29
  1.2638;                                 !- Year Escalation 30

LifeCycleCost:UsePriceEscalation,
  U.S. Avg  Commercial-Natural gas,       !- Name
  NaturalGas,                             !- Resource
  2011,                                   !- Escalation Start Year
  January,                                !- Escalation Start Month
  0.9823,                                 !- Year Escalation 1
  0.9557,                                 !- Year Escalation 2
  0.9279,                                 !- Year Escalation 3
  0.9257,                                 !- Year Escalation 4
  0.9346,                                 !- Year Escalation 5
  0.9412,                                 !- Year Escalation 6
  0.9512,                                 !- Year Escalation 7
  0.9645,                                 !- Year Escalation 8
  0.9856,                                 !- Year Escalation 9
  1.0067,                                 !- Year Escalation 10
  1.0222,                                 !- Year Escalation 11
  1.0410,                                 !- Year Escalation 12
  1.0610,                                 !- Year Escalation 13
  1.0787,                                 !- Year Escalation 14
  1.0942,                                 !- Year Escalation 15
  1.1098,                                 !- Year Escalation 16
  1.1220,                                 !- Year Escalation 17
  1.1308,                                 !- Year Escalation 18
  1.1386,                                 !- Year Escalation 19
  1.1486,                                 !- Year Escalation 20
  1.1619,                                 !- Year Escalation 21
  1.1763,                                 !- Year Escalation 22
  1.1918,                                 !- Year Escalation 23
  1.2118,                                 !- Year Escalation 24
  1.2284,                                 !- Year Escalation 25
  1.2439,                                 !- Year Escalation 26
  1.2605,                                 !- Year Escalation 27
  1.2772,                                 !- Year Escalation 28
  1.2938,                                 !- Year Escalation 29
  1.3115;                                 !- Year Escalation 30

LifeCycleCost:UsePriceEscalation,
  U.S. Avg  Commercial-Coal,              !- Name
  Coal,                                   !- Resource
  2011,                                   !- Escalation Start Year
  January,                                !- Escalation Start Month
  0.9970,                                 !- Year Escalation 1
  1.0089,                                 !- Year Escalation 2
  1.0089,                                 !- Year Escalation 3
  0.9941,                                 !- Year Escalation 4
  0.9941,                                 !- Year Escalation 5
  1.0000,                                 !- Year Escalation 6
  1.0030,                                 !- Year Escalation 7
  1.0059,                                 !- Year Escalation 8
  1.0089,                                 !- Year Escalation 9
  1.0119,                                 !- Year Escalation 10
  1.0148,                                 !- Year Escalation 11
  1.0178,                                 !- Year Escalation 12
  1.0208,                                 !- Year Escalation 13
  1.0267,                                 !- Year Escalation 14
  1.0297,                                 !- Year Escalation 15
  1.0356,                                 !- Year Escalation 16
  1.0415,                                 !- Year Escalation 17
  1.0534,                                 !- Year Escalation 18
  1.0564,                                 !- Year Escalation 19
  1.0593,                                 !- Year Escalation 20
  1.0653,                                 !- Year Escalation 21
  1.0712,                                 !- Year Escalation 22
  1.0742,                                 !- Year Escalation 23
  1.0801,                                 !- Year Escalation 24
  1.0831,                                 !- Year Escalation 25
  1.0831,                                 !- Year Escalation 26
  1.0861,                                 !- Year Escalation 27
  1.0890,                                 !- Year Escalation 28
  1.0920,                                 !- Year Escalation 29
  1.0950;                                 !- Year Escalation 30

Building,
  Medium Office,                          !- Name
  -0,                                     !- North Axis {deg}
  ,                                       !- Terrain
  0.04,                                   !- Loads Convergence Tolerance Value
  0.4,                                    !- Temperature Convergence Tolerance Value {deltaC}
  FullExterior,                           !- Solar Distribution
  25,                                     !- Maximum Number of Warmup Days
  ;                                       !- Minimum Number of Warmup Days

Zone,
  Thermal Zone: Space 101,                !- Name
  ,                                       !- Direction of Relative North {deg}
  2.57657626601709,                       !- X Origin {m}
  2.18902616548279,                       !- Y Origin {m}
  0,                                      !- Z Origin {m}
  ,                                       !- Type
  ,                                       !- Multiplier
  ,                                       !- Ceiling Height {m}
  ,                                       !- Volume {m3}
  ,                                       !- Floor Area {m2}
  ,                                       !- Zone Inside Convection Algorithm
  ;                                       !- Zone Outside Convection Algorithm

! 
! BuildingSurface:Detailed,
!   Surface 1,                              !- Name
!   Floor,                                  !- Surface Type
!   000 ExtSlabCarpet 4in ClimateZone 1-8,  !- Construction Name
!   Thermal Zone: Space 101,                !- Zone Name
!   Ground,                                 !- Outside Boundary Condition
!   ,                                       !- Outside Boundary Condition Object
!   NoSun,                                  !- Sun Exposure
!   NoWind,                                 !- Wind Exposure
!   ,                                       !- View Factor to Ground
!   ,                                       !- Number of Vertices
!   0, 12.192, 0,                           !- X,Y,Z Vertex 1 {m}
!   3.048, 9.144, 0,                        !- X,Y,Z Vertex 2 {m}
!   3.048, 3.048, 0,                        !- X,Y,Z Vertex 3 {m}
!   0, 0, 0;                                !- X,Y,Z Vertex 4 {m}
! 
! BuildingSurface:Detailed,
!   Surface 2,                              !- Name
!   Wall,                                   !- Surface Type
!   ASHRAE 189.1-2009 ExtWall SteelFrame ClimateZone 4-8, !- Construction Name
!   Thermal Zone: Space 101,                !- Zone Name
!   Outdoors,                               !- Outside Boundary Condition
!   ,                                       !- Outside Boundary Condition Object
!   SunExposed,                             !- Sun Exposure
!   WindExposed,                            !- Wind Exposure
!   ,                                       !- View Factor to Ground
!   ,                                       !- Number of Vertices
!   0, 12.192, 3.048,                       !- X,Y,Z Vertex 1 {m}
!   0, 12.192, 0,                           !- X,Y,Z Vertex 2 {m}
!   0, 0, 0,                                !- X,Y,Z Vertex 3 {m}
!   0, 0, 3.048;                            !- X,Y,Z Vertex 4 {m}
! 
! BuildingSurface:Detailed,
!   Surface 3,                              !- Name
!   Wall,                                   !- Surface Type
!   000 Interior Wall,                      !- Construction Name
!   Thermal Zone: Space 101,                !- Zone Name
!   Surface,                                !- Outside Boundary Condition
!   Surface 29,                             !- Outside Boundary Condition Object
!   NoSun,                                  !- Sun Exposure
!   NoWind,                                 !- Wind Exposure
!   ,                                       !- View Factor to Ground
!   ,                                       !- Number of Vertices
!   3.048, 9.144, 3.048,                    !- X,Y,Z Vertex 1 {m}
!   3.048, 9.144, 0,                        !- X,Y,Z Vertex 2 {m}
!   0, 12.192, 0,                           !- X,Y,Z Vertex 3 {m}
!   0, 12.192, 3.048;                       !- X,Y,Z Vertex 4 {m}
! 
! BuildingSurface:Detailed,
!   Surface 4,                              !- Name
!   Wall,                                   !- Surface Type
!   000 Interior Wall,                      !- Construction Name
!   Thermal Zone: Space 101,                !- Zone Name
!   Surface,                                !- Outside Boundary Condition
!   Surface 22,                             !- Outside Boundary Condition Object
!   NoSun,                                  !- Sun Exposure
!   NoWind,                                 !- Wind Exposure
!   ,                                       !- View Factor to Ground
!   ,                                       !- Number of Vertices
!   3.048, 3.048, 3.048,                    !- X,Y,Z Vertex 1 {m}
!   3.048, 3.048, 0,                        !- X,Y,Z Vertex 2 {m}
!   3.048, 9.144, 0,                        !- X,Y,Z Vertex 3 {m}
!   3.048, 9.144, 3.048;                    !- X,Y,Z Vertex 4 {m}
! 
! BuildingSurface:Detailed,
!   Surface 5,                              !- Name
!   Wall,                                   !- Surface Type
!   000 Interior Wall,                      !- Construction Name
!   Thermal Zone: Space 101,                !- Zone Name
!   Surface,                                !- Outside Boundary Condition
!   Surface 11,                             !- Outside Boundary Condition Object
!   NoSun,                                  !- Sun Exposure
!   NoWind,                                 !- Wind Exposure
!   ,                                       !- View Factor to Ground
!   ,                                       !- Number of Vertices
!   0, 0, 3.048,                            !- X,Y,Z Vertex 1 {m}
!   0, 0, 0,                                !- X,Y,Z Vertex 2 {m}
!   3.048, 3.048, 0,                        !- X,Y,Z Vertex 3 {m}
!   3.048, 3.048, 3.048;                    !- X,Y,Z Vertex 4 {m}
! 
! BuildingSurface:Detailed,
!   Surface 6,                              !- Name
!   Ceiling,                                !- Surface Type
!   000 Interior Ceiling,                   !- Construction Name
!   Thermal Zone: Space 101,                !- Zone Name
!   Surface,                                !- Outside Boundary Condition
!   Surface 31,                             !- Outside Boundary Condition Object
!   NoSun,                                  !- Sun Exposure
!   NoWind,                                 !- Wind Exposure
!   ,                                       !- View Factor to Ground
!   ,                                       !- Number of Vertices
!   0, 0, 3.048,                            !- X,Y,Z Vertex 1 {m}
!   3.048, 3.048, 3.048,                    !- X,Y,Z Vertex 2 {m}
!   3.048, 9.144, 3.048,                    !- X,Y,Z Vertex 3 {m}
!   0, 12.192, 3.048;                       !- X,Y,Z Vertex 4 {m}

ZoneControl:Thermostat,
  Thermal Zone: Space 101 Thermostat,     !- Name
  Thermal Zone: Space 101,                !- Zone or ZoneList Name
  Thermal Zone: Space 101 Thermostat Schedule, !- Control Type Schedule Name
  ThermostatSetpoint:DualSetpoint,        !- Control Object Type 1
  Medium Office Thermostat;               !- Control Name 1

Schedule:Compact,
  Thermal Zone: Space 101 Thermostat Schedule, !- Name
  Thermal Zone: Space 101 Thermostat Schedule Type Limits, !- Schedule Type Limits Name
  Through: 12/31,                         !- Field 1
  For: AllDays,                           !- Field 2
  Until: 24:00,                           !- Field 3
  4;                                      !- Field 4

ScheduleTypeLimits,
  Thermal Zone: Space 101 Thermostat Schedule Type Limits, !- Name
  0,                                      !- Lower Limit Value {BasedOnField A3}
  4,                                      !- Upper Limit Value {BasedOnField A3}
  DISCRETE;                               !- Numeric Type

ThermostatSetpoint:DualSetpoint,
  Medium Office Thermostat,               !- Name
  Medium Office HtgSetp,                  !- Heating Setpoint Temperature Schedule Name
  Medium Office ClgSetp;                  !- Cooling Setpoint Temperature Schedule Name

ScheduleTypeLimits,
  Temperature 1,                          !- Name
  ,                                       !- Lower Limit Value {BasedOnField A3}
  ,                                       !- Upper Limit Value {BasedOnField A3}
  Continuous,                             !- Numeric Type
  temperature;                            !- Unit Type

Schedule:Day:Interval,
  Medium Office HtgSetp Default Schedule, !- Name
  Temperature 1,                          !- Schedule Type Limits Name
  No,                                     !- Interpolate to Timestep
  06:00,                                  !- Time 1 {hh:mm}
  15.6,                                   !- Value Until Time 1
  22:00,                                  !- Time 2 {hh:mm}
  21,                                     !- Value Until Time 2
  24:00,                                  !- Time 3 {hh:mm}
  15.6;                                   !- Value Until Time 3

Schedule:Day:Interval,
  Medium Office HtgSetp Rule 2 Day Schedule, !- Name
  Temperature 1,                          !- Schedule Type Limits Name
  No,                                     !- Interpolate to Timestep
  06:00,                                  !- Time 1 {hh:mm}
  15.6,                                   !- Value Until Time 1
  18:00,                                  !- Time 2 {hh:mm}
  21,                                     !- Value Until Time 2
  24:00,                                  !- Time 3 {hh:mm}
  15.6;                                   !- Value Until Time 3

Schedule:Day:Interval,
  Medium Office HtgSetp Rule 1 Day Schedule, !- Name
  Temperature 1,                          !- Schedule Type Limits Name
  No,                                     !- Interpolate to Timestep
  24:00,                                  !- Time 1 {hh:mm}
  15.6;                                   !- Value Until Time 1

Schedule:Week:Daily,
  Schedule:Week:Daily {d348d771-7381-4f9b-8c2d-2760c63afa58}, !- Name
  Medium Office HtgSetp Default Schedule, !- Sunday Schedule:Day Name
  Medium Office HtgSetp Default Schedule, !- Monday Schedule:Day Name
  Medium Office HtgSetp Default Schedule, !- Tuesday Schedule:Day Name
  Medium Office HtgSetp Default Schedule, !- Wednesday Schedule:Day Name
  Medium Office HtgSetp Default Schedule, !- Thursday Schedule:Day Name
  Medium Office HtgSetp Default Schedule, !- Friday Schedule:Day Name
  Medium Office HtgSetp Rule 2 Day Schedule, !- Saturday Schedule:Day Name
  Medium Office HtgSetp Default Schedule, !- Holiday Schedule:Day Name
  Medium Office HtgSetp Summer Design Day, !- SummerDesignDay Schedule:Day Name
  Medium Office HtgSetp Winter Design Day, !- WinterDesignDay Schedule:Day Name
  Medium Office HtgSetp Default Schedule, !- CustomDay1 Schedule:Day Name
  Medium Office HtgSetp Default Schedule; !- CustomDay2 Schedule:Day Name

Schedule:Week:Daily,
  Schedule:Week:Daily {5c951196-7596-4bc9-8a49-ead1d1f5a146}, !- Name
  Medium Office HtgSetp Rule 1 Day Schedule, !- Sunday Schedule:Day Name
  Medium Office HtgSetp Default Schedule, !- Monday Schedule:Day Name
  Medium Office HtgSetp Default Schedule, !- Tuesday Schedule:Day Name
  Medium Office HtgSetp Default Schedule, !- Wednesday Schedule:Day Name
  Medium Office HtgSetp Default Schedule, !- Thursday Schedule:Day Name
  Medium Office HtgSetp Default Schedule, !- Friday Schedule:Day Name
  Medium Office HtgSetp Rule 2 Day Schedule, !- Saturday Schedule:Day Name
  Medium Office HtgSetp Default Schedule, !- Holiday Schedule:Day Name
  Medium Office HtgSetp Summer Design Day, !- SummerDesignDay Schedule:Day Name
  Medium Office HtgSetp Winter Design Day, !- WinterDesignDay Schedule:Day Name
  Medium Office HtgSetp Default Schedule, !- CustomDay1 Schedule:Day Name
  Medium Office HtgSetp Default Schedule; !- CustomDay2 Schedule:Day Name

Schedule:Year,
  Medium Office HtgSetp,                  !- Name
  Temperature 1,                          !- Schedule Type Limits Name
  Schedule:Week:Daily {d348d771-7381-4f9b-8c2d-2760c63afa58}, !- Schedule:Week Name 1
  1,                                      !- Start Month 1
  1,                                      !- Start Day 1
  1,                                      !- End Month 1
  3,                                      !- End Day 1
  Schedule:Week:Daily {5c951196-7596-4bc9-8a49-ead1d1f5a146}, !- Schedule:Week Name 2
  1,                                      !- Start Month 2
  4,                                      !- Start Day 2
  12,                                     !- End Month 2
  31;                                     !- End Day 2

Schedule:Day:Interval,
  Medium Office HtgSetp Summer Design Day, !- Name
  Temperature 1,                          !- Schedule Type Limits Name
  No,                                     !- Interpolate to Timestep
  24:00,                                  !- Time 1 {hh:mm}
  15.6;                                   !- Value Until Time 1

Schedule:Day:Interval,
  Medium Office HtgSetp Winter Design Day, !- Name
  Temperature 1,                          !- Schedule Type Limits Name
  No,                                     !- Interpolate to Timestep
  24:00,                                  !- Time 1 {hh:mm}
  21;                                     !- Value Until Time 1

ScheduleTypeLimits,
  Temperature 2,                          !- Name
  ,                                       !- Lower Limit Value {BasedOnField A3}
  ,                                       !- Upper Limit Value {BasedOnField A3}
  Continuous,                             !- Numeric Type
  temperature;                            !- Unit Type

Schedule:Day:Interval,
  Medium Office ClgSetp Default Schedule, !- Name
  Temperature 2,                          !- Schedule Type Limits Name
  No,                                     !- Interpolate to Timestep
  06:00,                                  !- Time 1 {hh:mm}
  26.7,                                   !- Value Until Time 1
  22:00,                                  !- Time 2 {hh:mm}
  24,                                     !- Value Until Time 2
  24:00,                                  !- Time 3 {hh:mm}
  26.7;                                   !- Value Until Time 3

Schedule:Day:Interval,
  Medium Office ClgSetp Rule 2 Day Schedule, !- Name
  Temperature 2,                          !- Schedule Type Limits Name
  No,                                     !- Interpolate to Timestep
  06:00,                                  !- Time 1 {hh:mm}
  26.7,                                   !- Value Until Time 1
  18:00,                                  !- Time 2 {hh:mm}
  24,                                     !- Value Until Time 2
  24:00,                                  !- Time 3 {hh:mm}
  26.7;                                   !- Value Until Time 3

Schedule:Day:Interval,
  Medium Office ClgSetp Rule 1 Day Schedule, !- Name
  Temperature 2,                          !- Schedule Type Limits Name
  No,                                     !- Interpolate to Timestep
  24:00,                                  !- Time 1 {hh:mm}
  26.7;                                   !- Value Until Time 1

Schedule:Week:Daily,
  Schedule:Week:Daily {29fb85c0-946b-4fa0-8430-039b3d8c0687}, !- Name
  Medium Office ClgSetp Default Schedule, !- Sunday Schedule:Day Name
  Medium Office ClgSetp Default Schedule, !- Monday Schedule:Day Name
  Medium Office ClgSetp Default Schedule, !- Tuesday Schedule:Day Name
  Medium Office ClgSetp Default Schedule, !- Wednesday Schedule:Day Name
  Medium Office ClgSetp Default Schedule, !- Thursday Schedule:Day Name
  Medium Office ClgSetp Default Schedule, !- Friday Schedule:Day Name
  Medium Office ClgSetp Rule 2 Day Schedule, !- Saturday Schedule:Day Name
  Medium Office ClgSetp Default Schedule, !- Holiday Schedule:Day Name
  Medium Office ClgSetp Summer Design Day, !- SummerDesignDay Schedule:Day Name
  Medium Office ClgSetp Winter Design Day, !- WinterDesignDay Schedule:Day Name
  Medium Office ClgSetp Default Schedule, !- CustomDay1 Schedule:Day Name
  Medium Office ClgSetp Default Schedule; !- CustomDay2 Schedule:Day Name

Schedule:Week:Daily,
  Schedule:Week:Daily {c7ab9b41-4904-471a-a19d-de2c9632e3bc}, !- Name
  Medium Office ClgSetp Rule 1 Day Schedule, !- Sunday Schedule:Day Name
  Medium Office ClgSetp Default Schedule, !- Monday Schedule:Day Name
  Medium Office ClgSetp Default Schedule, !- Tuesday Schedule:Day Name
  Medium Office ClgSetp Default Schedule, !- Wednesday Schedule:Day Name
  Medium Office ClgSetp Default Schedule, !- Thursday Schedule:Day Name
  Medium Office ClgSetp Default Schedule, !- Friday Schedule:Day Name
  Medium Office ClgSetp Rule 2 Day Schedule, !- Saturday Schedule:Day Name
  Medium Office ClgSetp Default Schedule, !- Holiday Schedule:Day Name
  Medium Office ClgSetp Summer Design Day, !- SummerDesignDay Schedule:Day Name
  Medium Office ClgSetp Winter Design Day, !- WinterDesignDay Schedule:Day Name
  Medium Office ClgSetp Default Schedule, !- CustomDay1 Schedule:Day Name
  Medium Office ClgSetp Default Schedule; !- CustomDay2 Schedule:Day Name

Schedule:Year,
  Medium Office ClgSetp,                  !- Name
  Temperature 2,                          !- Schedule Type Limits Name
  Schedule:Week:Daily {29fb85c0-946b-4fa0-8430-039b3d8c0687}, !- Schedule:Week Name 1
  1,                                      !- Start Month 1
  1,                                      !- Start Day 1
  1,                                      !- End Month 1
  3,                                      !- End Day 1
  Schedule:Week:Daily {c7ab9b41-4904-471a-a19d-de2c9632e3bc}, !- Schedule:Week Name 2
  1,                                      !- Start Month 2
  4,                                      !- Start Day 2
  12,                                     !- End Month 2
  31;                                     !- End Day 2

Schedule:Day:Interval,
  Medium Office ClgSetp Summer Design Day, !- Name